unknown|nsp13x0686PharmsElabs2|sdf|50|dock1
  PyMOL2.4          3D                             0

 30 31  0  0  0  0  0  0  0  0999 V2000
  -18.8875   38.5103  -67.8811 C   0  0  0  0  0  0  0  0  0  0  0  0
  -20.0123   37.5098  -67.7374 C   0  0  0  0  0  0  0  0  0  0  0  0
  -21.3576   37.9267  -67.8643 C   0  0  0  0  0  0  0  0  0  0  0  0
  -21.7982   39.5974  -68.1977 Cl  0  0  0  0  0  0  0  0  0  0  0  0
  -22.3960   37.0055  -67.7278 C   0  0  0  0  0  0  0  0  0  0  0  0
  -22.1212   35.6717  -67.4649 C   0  0  0  0  0  0  0  0  0  0  0  0
  -20.8073   35.2401  -67.3357 C   0  0  0  0  0  0  0  0  0  0  0  0
  -19.7255   36.1406  -67.4714 C   0  0  0  0  0  0  0  0  0  0  0  0
  -18.3476   35.7074  -67.3417 N   0  0  0  0  0  0  0  0  0  0  0  0
  -17.8616   34.3943  -67.0141 C   0  0  0  0  0  0  0  0  0  0  0  0
  -18.6377   33.4243  -66.8253 O   0  0  0  0  0  0  0  0  0  0  0  0
  -16.3891   34.1522  -66.9493 C   0  0  0  0  0  0  0  0  0  0  0  0
  -16.0355   32.9904  -67.8166 C   0  0  0  0  0  0  0  0  0  0  0  0
  -16.6393   31.7491  -67.8034 C   0  0  0  0  0  0  0  0  0  0  0  0
  -16.0122   31.0158  -68.7903 C   0  0  0  0  0  0  0  0  0  0  0  0
  -15.0693   31.7621  -69.3971 N   0  0  0  0  0  0  0  0  0  0  0  0
  -15.0802   32.9723  -68.8119 C   0  0  0  0  0  0  0  0  0  0  0  0
  -19.2266   39.5427  -68.0860 H   0  0  0  0  0  0  0  0  0  0  0  0
  -18.2976   38.5484  -66.9411 H   0  0  0  0  0  0  0  0  0  0  0  0
  -18.2301   38.2159  -68.7264 H   0  0  0  0  0  0  0  0  0  0  0  0
  -23.4256   37.3267  -67.8252 H   0  0  0  0  0  0  0  0  0  0  0  0
  -22.9359   34.9665  -67.3574 H   0  0  0  0  0  0  0  0  0  0  0  0
  -20.6948   34.1970  -67.1228 H   0  0  0  0  0  0  0  0  0  0  0  0
  -17.5886   36.4032  -67.5004 H   0  0  0  0  0  0  0  0  0  0  0  0
  -16.0812   33.9450  -65.9013 H   0  0  0  0  0  0  0  0  0  0  0  0
  -15.8390   35.0573  -67.2855 H   0  0  0  0  0  0  0  0  0  0  0  0
  -17.4417   31.4183  -67.1571 H   0  0  0  0  0  0  0  0  0  0  0  0
  -16.2387   29.9914  -69.0551 H   0  0  0  0  0  0  0  0  0  0  0  0
  -14.4502   31.4595  -70.1812 H   0  0  0  0  0  0  0  0  0  0  0  0
  -14.4348   33.7937  -69.0953 H   0  0  0  0  0  0  0  0  0  0  0  0
  1  2  1  0  0  0  0
  1 18  1  0  0  0  0
  1 19  1  0  0  0  0
  1 20  1  0  0  0  0
  2  3  2  0  0  0  0
  3  4  1  0  0  0  0
  3  5  1  0  0  0  0
  5  6  2  0  0  0  0
  5 21  1  0  0  0  0
  6  7  1  0  0  0  0
  6 22  1  0  0  0  0
  7  8  2  0  0  0  0
  7 23  1  0  0  0  0
  2  8  1  0  0  0  0
  8  9  1  0  0  0  0
  9 10  1  0  0  0  0
  9 24  1  0  0  0  0
 10 11  2  0  0  0  0
 10 12  1  0  0  0  0
 12 13  1  0  0  0  0
 12 25  1  0  0  0  0
 12 26  1  0  0  0  0
 13 14  1  0  0  0  0
 14 15  2  0  0  0  0
 14 27  1  0  0  0  0
 15 16  1  0  0  0  0
 15 28  1  0  0  0  0
 16 17  1  0  0  0  0
 16 29  1  0  0  0  0
 13 17  2  0  0  0  0
 17 30  1  0  0  0  0
M  END
>  <EmbedRMS>
0.025387

>  <Gold.Version>
2020.3.0

>  <Gold.Id.Protein>
unknown|nsp13Hs|pdb

>  <Gold.PLP.Fitness>
44.850700

>  <Gold.PLP.PLP>
-41.555700

>  <Gold.PLP.part.hbond>
-1.421400

>  <Gold.PLP.part.metal>
0.000000

>  <Gold.PLP.part.buried>
0.970700

>  <Gold.PLP.part.nonpolar>
-41.728100

>  <Gold.PLP.part.repulsive>
0.036400

>  <Gold.PLP.ligand.clash>
0.000000

>  <Gold.PLP.ligand.torsion>
0.135400

>  <Gold.PLP.Chemscore.Hbond>
0.240000

>  <Gold.PLP.Chemscore.CHOScore>
0.944700

>  <Gold.PLP.Chemscore.Metal>
0.000000

>  <Gold.Chemscore.Hbonds>
donor molecule, donor type, donor heavy atom, donor atom, acceptor molecule, acceptor atom, score
      L1  H    16    29       P1  6021  0.24
      L1  C    17    30       P1  2013  0.94


>  <Gold.PLP.Chemscore.Internal.Correction>
0.011600

>  <Gold.PLP.Constraint>
-0.000000

>  <Gold.Protein.RotatedTorsions>
[ 6066 6062 6060 6057 ] final -171.75 input   59.99 | X-H torsion
[ 2652 2643 2642 2640 ] final -125.51 input   60.00 | X-H torsion
[ 2141 2132 2131 2129 ] final    1.64 input   60.00 | X-H torsion


>  <Gold.Protein.ActiveResidues>
 LYS139  THR141  GLU142  GLU143  PHE145  LYS146  SER148  TYR149  PRO174  PRO175 
 ASN179  TYR180  LEU227  THR380  ALA407  PRO408  ARG409  THR410  LEU411 


>  <Gold.Protein.RotatedAtoms>
  -24.1428   40.0121  -72.4471 H   0  0  0  0  0  0  0  0  0  0  0  0  # atno 2141 bound_to 2132
  -22.2224   36.7765  -71.4832 H   0  0  0  0  0  0  0  0  0  0  0  0  # atno 2652 bound_to 2643
  -17.8409   36.4692  -69.0277 H   0  0  0  0  0  0  0  0  0  0  0  0  # atno 6066 bound_to 6062
  -17.1530   37.6104  -69.9618 LP  0  0  0  0  0  0  0  0  0  0  0  0  # atno 8986 bound_to 6062
  -16.5129   36.1095  -69.8967 LP  0  0  0  0  0  0  0  0  0  0  0  0  # atno 8987 bound_to 6062
  -23.4590   36.9292  -72.5294 LP  0  0  0  0  0  0  0  0  0  0  0  0  # atno 8988 bound_to 2643
  -22.3396   35.7606  -72.7486 LP  0  0  0  0  0  0  0  0  0  0  0  0  # atno 8989 bound_to 2643
  -24.0930   38.5139  -71.8132 LP  0  0  0  0  0  0  0  0  0  0  0  0  # atno 8990 bound_to 2132
  -22.9120   39.5882  -71.4700 LP  0  0  0  0  0  0  0  0  0  0  0  0  # atno 8991 bound_to 2132


$$$$
